12205426
  -OEChem-12042209522D

 14 14  0     0  0  0  0  0  0999 V2000
    3.4030    2.0000    0.0000 O   0  0  0  0  0  0  0  0  0  0  0  0
    3.4030   -2.0000    0.0000 O   0  0  0  0  0  0  0  0  0  0  0  0
    3.4030    1.0000    0.0000 C   0  0  0  0  0  0  0  0  0  0  0  0
    3.4030   -1.0000    0.0000 C   0  0  0  0  0  0  0  0  0  0  0  0
    4.2690    0.5000    0.0000 C   0  0  0  0  0  0  0  0  0  0  0  0
    4.2690   -0.5000    0.0000 C   0  0  0  0  0  0  0  0  0  0  0  0
    2.5369    0.5000    0.0000 C   0  0  0  0  0  0  0  0  0  0  0  0
    2.5369   -0.5000    0.0000 C   0  0  0  0  0  0  0  0  0  0  0  0
    4.8059    0.8100    0.0000 H   1  0  0  0  0  0  0  0  0  0  0  0
    4.8059   -0.8100    0.0000 H   1  0  0  0  0  0  0  0  0  0  0  0
    2.0000    0.8100    0.0000 H   1  0  0  0  0  0  0  0  0  0  0  0
    2.0000   -0.8100    0.0000 H   1  0  0  0  0  0  0  0  0  0  0  0
    3.9399    2.3100    0.0000 H   0  0  0  0  0  0  0  0  0  0  0  0
    2.8660   -2.3100    0.0000 H   0  0  0  0  0  0  0  0  0  0  0  0
  1  3  1  0  0  0  0
  1 13  1  0  0  0  0
  2  4  1  0  0  0  0
  2 14  1  0  0  0  0
  3  5  2  0  0  0  0
  3  7  1  0  0  0  0
  4  6  2  0  0  0  0
  4  8  1  0  0  0  0
  5  6  1  0  0  0  0
  5  9  1  0  0  0  0
  6 10  1  0  0  0  0
  7  8  2  0  0  0  0
  7 11  1  0  0  0  0
  8 12  1  0  0  0  0
M  ISO  4   9   2  10   2  11   2  12   2
M  END
> <PUBCHEM_COMPOUND_CID>
12205426

> <PUBCHEM_COMPOUND_CANONICALIZED>
1

> <PUBCHEM_CACTVS_COMPLEXITY>
54.9

> <PUBCHEM_CACTVS_HBOND_ACCEPTOR>
2

> <PUBCHEM_CACTVS_HBOND_DONOR>
2

> <PUBCHEM_CACTVS_ROTATABLE_BOND>
0

> <PUBCHEM_CACTVS_SUBSKEYS>
AAADcYBgMAAAAAAAAAAAAAAAAAAAAAAAAAAwAAAAAAAAAAABAAAAGgAACAAACASAkAAwBoAAAgCAACBCAAACAAAgIAAIiAAGCIgIJiKCERKAcAAkwBEImAfAQAAAAQAAAAAAAAACAAAAAAAAAAAAAAAAAA==

> <PUBCHEM_IUPAC_OPENEYE_NAME>
2,3,5,6-tetradeuteriobenzene-1,4-diol

> <PUBCHEM_IUPAC_CAS_NAME>
2,3,5,6-tetradeuteriobenzene-1,4-diol

> <PUBCHEM_IUPAC_NAME_MARKUP>
2,3,5,6-tetradeuteriobenzene-1,4-diol

> <PUBCHEM_IUPAC_NAME>
2,3,5,6-tetradeuteriobenzene-1,4-diol

> <PUBCHEM_IUPAC_SYSTEMATIC_NAME>
2,3,5,6-tetradeuteriobenzene-1,4-diol

> <PUBCHEM_IUPAC_TRADITIONAL_NAME>
2,3,5,6-tetradeuteriohydroquinone

> <PUBCHEM_IUPAC_INCHI>
InChI=1S/C6H6O2/c7-5-1-2-6(8)4-3-5/h1-4,7-8H/i1D,2D,3D,4D

> <PUBCHEM_IUPAC_INCHIKEY>
QIGBRXMKCJKVMJ-RHQRLBAQSA-N

> <PUBCHEM_XLOGP3>
0.6

> <PUBCHEM_EXACT_MASS>
114.061886414

> <PUBCHEM_MOLECULAR_FORMULA>
C6H6O2

> <PUBCHEM_MOLECULAR_WEIGHT>
114.13

> <PUBCHEM_OPENEYE_CAN_SMILES>
C1=CC(=CC=C1O)O

> <PUBCHEM_OPENEYE_ISO_SMILES>
[2H]C1=C(C(=C(C(=C1O)[2H])[2H])O)[2H]

> <PUBCHEM_CACTVS_TPSA>
40.5

> <PUBCHEM_MONOISOTOPIC_WEIGHT>
114.061886414

> <PUBCHEM_TOTAL_CHARGE>
0

> <PUBCHEM_HEAVY_ATOM_COUNT>
8

> <PUBCHEM_ATOM_DEF_STEREO_COUNT>
0

> <PUBCHEM_ATOM_UDEF_STEREO_COUNT>
0

> <PUBCHEM_BOND_DEF_STEREO_COUNT>
0

> <PUBCHEM_BOND_UDEF_STEREO_COUNT>
0

> <PUBCHEM_ISOTOPIC_ATOM_COUNT>
4

> <PUBCHEM_COMPONENT_COUNT>
1

> <PUBCHEM_CACTVS_TAUTO_COUNT>
3

> <PUBCHEM_COORDINATE_TYPE>
1
5
255

> <PUBCHEM_BONDANNOTATIONS>
3  5  8
3  7  8
4  6  8
4  8  8
5  6  8
7  8  8

$$$$
