71280744
  -OEChem-05062203273D

 37 38  0     0  0  0  0  0  0999 V2000
    2.8209   -2.4624    0.7918 Cl  0  0  0  0  0  0  0  0  0  0  0  0
   -1.8530   -4.8879   -0.4337 Cl  0  0  0  0  0  0  0  0  0  0  0  0
    0.8567    3.0210   -0.9381 O   0  0  0  0  0  0  0  0  0  0  0  0
   -0.7463    3.2289    0.6600 O   0  0  0  0  0  0  0  0  0  0  0  0
   -5.6085    1.3889    1.1645 O   0  0  0  0  0  0  0  0  0  0  0  0
    5.7068    0.9866   -1.0723 O   0  0  0  0  0  0  0  0  0  0  0  0
   -5.0224    1.7008   -1.0080 O   0  0  0  0  0  0  0  0  0  0  0  0
    5.0208    1.5455    1.0200 O   0  0  0  0  0  0  0  0  0  0  0  0
   -1.1036    0.2707   -0.2986 N   0  0  0  0  0  0  0  0  0  0  0  0
    1.0395    0.2214    0.2772 C   0  0  0  0  0  0  0  0  0  0  0  0
   -0.7707   -1.0609   -0.1921 C   0  0  0  0  0  0  0  0  0  0  0  0
    0.5767   -1.1199    0.1704 C   0  0  0  0  0  0  0  0  0  0  0  0
   -0.0161    1.0533   -0.0170 C   0  0  0  0  0  0  0  0  0  0  0  0
   -2.4159    0.7705   -0.6545 C   0  0  0  0  0  0  0  0  0  0  0  0
    2.4004    0.6794    0.6364 C   0  0  0  0  0  0  0  0  0  0  0  0
   -1.5512   -2.2060   -0.3869 C   0  0  0  0  0  0  0  0  0  0  0  0
    1.1767   -2.3824    0.3477 C   0  0  0  0  0  0  0  0  0  0  0  0
   -3.4080    0.7314    0.5050 C   0  0  0  0  0  0  0  0  0  0  0  0
    3.4174    0.5898   -0.5136 C   0  0  0  0  0  0  0  0  0  0  0  0
   -0.0283    2.4857   -0.0401 C   0  0  0  0  0  0  0  0  0  0  0  0
   -0.9345   -3.4473   -0.2052 C   0  0  0  0  0  0  0  0  0  0  0  0
    0.4082   -3.5365    0.1565 C   0  0  0  0  0  0  0  0  0  0  0  0
   -4.7406    1.3298    0.1244 C   0  0  0  0  0  0  0  0  0  0  0  0
    4.7750    1.0997   -0.0937 C   0  0  0  0  0  0  0  0  0  0  0  0
   -2.3125    1.7883   -1.0467 H   0  0  0  0  0  0  0  0  0  0  0  0
   -2.7797    0.1665   -1.4951 H   0  0  0  0  0  0  0  0  0  0  0  0
    2.7646    0.1384    1.5173 H   0  0  0  0  0  0  0  0  0  0  0  0
    2.3605    1.7224    0.9797 H   0  0  0  0  0  0  0  0  0  0  0  0
   -2.5966   -2.1347   -0.6701 H   0  0  0  0  0  0  0  0  0  0  0  0
   -3.5793   -0.2993    0.8330 H   0  0  0  0  0  0  0  0  0  0  0  0
   -3.0096    1.3019    1.3519 H   0  0  0  0  0  0  0  0  0  0  0  0
    3.0761    1.2111   -1.3502 H   0  0  0  0  0  0  0  0  0  0  0  0
    3.5294   -0.4315   -0.8842 H   0  0  0  0  0  0  0  0  0  0  0  0
    0.8686   -4.5135    0.2928 H   0  0  0  0  0  0  0  0  0  0  0  0
    0.8291    4.0017   -0.9329 H   0  0  0  0  0  0  0  0  0  0  0  0
   -6.4734    1.7679    0.8986 H   0  0  0  0  0  0  0  0  0  0  0  0
    6.5857    1.3098   -0.7803 H   0  0  0  0  0  0  0  0  0  0  0  0
  1 17  1  0  0  0  0
  2 21  1  0  0  0  0
  3 20  1  0  0  0  0
  3 35  1  0  0  0  0
  4 20  2  0  0  0  0
  5 23  1  0  0  0  0
  5 36  1  0  0  0  0
  6 24  1  0  0  0  0
  6 37  1  0  0  0  0
  7 23  2  0  0  0  0
  8 24  2  0  0  0  0
  9 11  1  0  0  0  0
  9 13  1  0  0  0  0
  9 14  1  0  0  0  0
 10 12  1  0  0  0  0
 10 13  2  0  0  0  0
 10 15  1  0  0  0  0
 11 12  2  0  0  0  0
 11 16  1  0  0  0  0
 12 17  1  0  0  0  0
 13 20  1  0  0  0  0
 14 18  1  0  0  0  0
 14 25  1  0  0  0  0
 14 26  1  0  0  0  0
 15 19  1  0  0  0  0
 15 27  1  0  0  0  0
 15 28  1  0  0  0  0
 16 21  2  0  0  0  0
 16 29  1  0  0  0  0
 17 22  2  0  0  0  0
 18 23  1  0  0  0  0
 18 30  1  0  0  0  0
 18 31  1  0  0  0  0
 19 24  1  0  0  0  0
 19 32  1  0  0  0  0
 19 33  1  0  0  0  0
 21 22  1  0  0  0  0
 22 34  1  0  0  0  0
M  END
> <PUBCHEM_COMPOUND_CID>
71280744

> <PUBCHEM_CONFORMER_RMSD>
0.8

> <PUBCHEM_CONFORMER_DIVERSEORDER>
1
38
25
33
13
29
32
23
40
35
30
39
5
22
7
28
36
14
18
16
21
26
15
19
37
34
3
8
24
9
20
11
31
27
6
2
4
17
12
10

> <PUBCHEM_MMFF94_PARTIAL_CHARGES>
28
1 -0.18
10 -0.18
11 -0.15
13 -0.24
14 0.26
15 0.18
16 -0.15
17 0.18
18 0.06
19 0.06
2 -0.18
20 0.81
21 0.18
22 -0.15
23 0.66
24 0.66
29 0.15
3 -0.65
34 0.15
35 0.5
36 0.5
37 0.5
4 -0.57
5 -0.65
6 -0.65
7 -0.57
8 -0.57
9 0.05

> <PUBCHEM_EFFECTIVE_ROTOR_COUNT>
7

> <PUBCHEM_PHARMACOPHORE_FEATURES>
12
1 3 acceptor
1 4 acceptor
1 5 acceptor
1 6 acceptor
1 7 acceptor
1 8 acceptor
1 9 cation
3 3 4 20 anion
3 5 7 23 anion
3 6 8 24 anion
5 9 10 11 12 13 rings
6 11 12 16 17 21 22 rings

> <PUBCHEM_HEAVY_ATOM_COUNT>
24

> <PUBCHEM_ATOM_DEF_STEREO_COUNT>
0

> <PUBCHEM_ATOM_UDEF_STEREO_COUNT>
0

> <PUBCHEM_BOND_DEF_STEREO_COUNT>
0

> <PUBCHEM_BOND_UDEF_STEREO_COUNT>
0

> <PUBCHEM_ISOTOPIC_ATOM_COUNT>
0

> <PUBCHEM_COMPONENT_COUNT>
1

> <PUBCHEM_CACTVS_TAUTO_COUNT>
1

> <PUBCHEM_CONFORMER_ID>
043FA86800000001

> <PUBCHEM_MMFF94_ENERGY>
44.1516

> <PUBCHEM_FEATURE_SELFOVERLAP>
61.164

> <PUBCHEM_SHAPE_FINGERPRINT>
10411042 1 17330270568232456843
10493431 412 18411699906686273585
10967382 1 18338230457971529690
1100329 8 18339364191988819888
12969540 114 18337100198852327661
13140716 1 18337101281015755251
13583140 156 16517349008230244818
13911987 19 18335976498174819901
14178342 30 18122884676348177634
14790565 3 18339928108272933496
14866123 147 18338517572240858834
15042514 8 18337669827864950786
15927050 60 18412545405337949158
1601671 61 18334294257942091725
16945 1 18049429637206864194
19591789 44 18267305326761449738
20642791 13 18053093214798871390
20739085 24 18192164693598180529
21781051 124 18115892761954319474
22182313 1 18267609998740923319
229495 10 16879602965503089110
2334 1 18338221747804629906
23419403 2 17316747781784866847
23557571 272 18199762512730895972
23559900 14 17688862039144982777
25147074 1 18265874960807782370
2748010 2 18410292488769066927
293599 30 18410858758689769700
335352 9 18410854327164482086
34934 24 18409445899470212810
350125 39 18193837033909808440
5486654 2 18411421712975263548
59554788 170 18265617572281195012
59755656 215 18341619162368649422
59755656 520 18413390933978762910

> <PUBCHEM_SHAPE_MULTIPOLES>
457.45
8.83
5.15
0.91
1.08
5.74
-0.01
-7.76
-0.18
-2.4
0.31
0.05
-0.22
-0.8

> <PUBCHEM_SHAPE_SELFOVERLAP>
960.186

> <PUBCHEM_SHAPE_VOLUME>
261.2

> <PUBCHEM_COORDINATE_TYPE>
2
5
10

$$$$
