71280879
  -OEChem-05072200023D

 28 29  0     0  0  0  0  0  0999 V2000
   -5.7743   -1.1740    0.3589 I   0  0  0  0  0  0  0  0  0  0  0  0
    0.8000    3.7549    0.2200 O   0  0  0  0  0  0  0  0  0  0  0  0
    2.4670    2.2952   -0.2871 O   0  0  0  0  0  0  0  0  0  0  0  0
    4.4831   -1.9244    1.2438 O   0  0  0  0  0  0  0  0  0  0  0  0
    3.9136   -2.0366   -0.9524 O   0  0  0  0  0  0  0  0  0  0  0  0
   -1.0984    1.7944    0.1655 N   0  0  0  0  0  0  0  0  0  0  0  0
    0.3162    0.1582   -0.3335 C   0  0  0  0  0  0  0  0  0  0  0  0
   -0.9898   -0.3979   -0.2338 C   0  0  0  0  0  0  0  0  0  0  0  0
    1.5555   -0.5840   -0.6486 C   0  0  0  0  0  0  0  0  0  0  0  0
   -1.8583    0.6498    0.0803 C   0  0  0  0  0  0  0  0  0  0  0  0
    0.2171    1.5075   -0.0831 C   0  0  0  0  0  0  0  0  0  0  0  0
    2.4323   -0.8950    0.5767 C   0  0  0  0  0  0  0  0  0  0  0  0
   -1.5181   -1.6958   -0.3809 C   0  0  0  0  0  0  0  0  0  0  0  0
   -3.2342    0.4634    0.2552 C   0  0  0  0  0  0  0  0  0  0  0  0
   -2.8924   -1.8971   -0.2088 C   0  0  0  0  0  0  0  0  0  0  0  0
   -3.7354   -0.8327    0.1043 C   0  0  0  0  0  0  0  0  0  0  0  0
    1.2526    2.4934   -0.0683 C   0  0  0  0  0  0  0  0  0  0  0  0
    3.6636   -1.6792    0.1918 C   0  0  0  0  0  0  0  0  0  0  0  0
    2.1426   -0.0270   -1.3904 H   0  0  0  0  0  0  0  0  0  0  0  0
    1.3018   -1.5275   -1.1498 H   0  0  0  0  0  0  0  0  0  0  0  0
   -1.4625    2.7126    0.3806 H   0  0  0  0  0  0  0  0  0  0  0  0
    1.8619   -1.4901    1.2991 H   0  0  0  0  0  0  0  0  0  0  0  0
    2.7538    0.0303    1.0655 H   0  0  0  0  0  0  0  0  0  0  0  0
   -0.8765   -2.5382   -0.6229 H   0  0  0  0  0  0  0  0  0  0  0  0
   -3.8759    1.3043    0.4995 H   0  0  0  0  0  0  0  0  0  0  0  0
   -3.2841   -2.9053   -0.3248 H   0  0  0  0  0  0  0  0  0  0  0  0
    1.5308    4.4094    0.2233 H   0  0  0  0  0  0  0  0  0  0  0  0
    5.2841   -2.4232    0.9757 H   0  0  0  0  0  0  0  0  0  0  0  0
  1 16  1  0  0  0  0
  2 17  1  0  0  0  0
  2 27  1  0  0  0  0
  3 17  2  0  0  0  0
  4 18  1  0  0  0  0
  4 28  1  0  0  0  0
  5 18  2  0  0  0  0
  6 10  1  0  0  0  0
  6 11  1  0  0  0  0
  6 21  1  0  0  0  0
  7  8  1  0  0  0  0
  7  9  1  0  0  0  0
  7 11  2  0  0  0  0
  8 10  2  0  0  0  0
  8 13  1  0  0  0  0
  9 12  1  0  0  0  0
  9 19  1  0  0  0  0
  9 20  1  0  0  0  0
 10 14  1  0  0  0  0
 11 17  1  0  0  0  0
 12 18  1  0  0  0  0
 12 22  1  0  0  0  0
 12 23  1  0  0  0  0
 13 15  2  0  0  0  0
 13 24  1  0  0  0  0
 14 16  2  0  0  0  0
 14 25  1  0  0  0  0
 15 16  1  0  0  0  0
 15 26  1  0  0  0  0
M  END
> <PUBCHEM_COMPOUND_CID>
71280879

> <PUBCHEM_CONFORMER_RMSD>
0.6

> <PUBCHEM_CONFORMER_DIVERSEORDER>
1
14
18
13
19
15
3
17
16
5
7
6
11
10
12
8
2
4
9

> <PUBCHEM_MMFF94_PARTIAL_CHARGES>
23
1 -0.08
10 -0.15
11 -0.24
12 0.06
13 -0.15
14 -0.15
15 -0.15
16 0.08
17 0.81
18 0.66
2 -0.65
21 0.27
24 0.15
25 0.15
26 0.15
27 0.5
28 0.5
3 -0.57
4 -0.65
5 -0.57
6 0.03
7 -0.18
9 0.18

> <PUBCHEM_EFFECTIVE_ROTOR_COUNT>
4

> <PUBCHEM_PHARMACOPHORE_FEATURES>
11
1 1 hydrophobe
1 2 acceptor
1 3 acceptor
1 4 acceptor
1 5 acceptor
1 6 cation
1 6 donor
3 2 3 17 anion
3 4 5 18 anion
5 6 7 8 10 11 rings
6 8 10 13 14 15 16 rings

> <PUBCHEM_HEAVY_ATOM_COUNT>
18

> <PUBCHEM_ATOM_DEF_STEREO_COUNT>
0

> <PUBCHEM_ATOM_UDEF_STEREO_COUNT>
0

> <PUBCHEM_BOND_DEF_STEREO_COUNT>
0

> <PUBCHEM_BOND_UDEF_STEREO_COUNT>
0

> <PUBCHEM_ISOTOPIC_ATOM_COUNT>
0

> <PUBCHEM_COMPONENT_COUNT>
1

> <PUBCHEM_CACTVS_TAUTO_COUNT>
5

> <PUBCHEM_CONFORMER_ID>
043FA8EF00000001

> <PUBCHEM_MMFF94_ENERGY>
26.7709

> <PUBCHEM_FEATURE_SELFOVERLAP>
56.027

> <PUBCHEM_SHAPE_FINGERPRINT>
10411042 1 18410858728693485999
10967382 1 18267588085933343037
10989021 7 18411420617700061012
11265709 11 18410855438869791546
11578080 2 17677033694954132588
11680986 33 18190469453000452195
12507560 14 18272371979674514919
12553582 1 18410852131808751534
12644460 14 18265626544457424385
13140716 1 18341053999885325329
13533116 47 18339645667687827427
13862211 1 18410852145110501607
13955234 65 18195249042857482697
14178342 30 17843699776495063163
14739800 52 17202764950655354809
15042514 8 18122063100438318595
15196674 1 18339364171405039559
15375462 189 18041842809543643770
15442244 35 18412830192034313177
15475509 35 17530687645341447875
15536298 74 18341895241895868441
16945 1 18341906138729045445
17804303 29 18408045091723770871
1813 80 18340212903280177206
18222031 100 18343864398533796558
20645477 70 18336824307781578751
20832881 197 18187364307709833739
21029758 27 18336272257869254479
21041028 32 18413390917252976793
21267235 1 18410865342853769358
21501502 16 18270682111975586655
21650355 55 18266451010663871640
22182313 1 17969481840902239253
2297311 6 18269564836595696406
23366157 5 18116152353581949052
23402539 116 18199737051663767719
23419403 2 17843653678263377049
23557571 272 18128824041236499494
23559900 14 18340485676742719403
25147074 1 18269293347138328345
2748010 2 18339908338633240244
3071541 37 18191311687159789589
3091708 16 9211232878923922520
314173 41 18409736161686955526
3286 77 18333733528992677735
335352 9 18338800018770962117
3421961 26 18410292544592644331
34934 24 18055917838495500485
43471831 8 17762332917704138384
465052 167 18337401512795090187
5104073 3 18269849756447194499
5902787 121 18408884031775047794
6138700 20 18267031725367654668
7364860 26 18340488992467949988
81228 2 17982466901073802640
8863177 126 17824279291867271051
90316 7 18194119616713748928
9709674 26 18191306185739355867
9981440 41 17546157971106478609

> <PUBCHEM_SHAPE_MULTIPOLES>
353.91
9.03
3.17
0.8
6.31
2.34
-0.06
-6.86
-1.57
-3.5
-0.14
-0.35
-0.3
-0.39

> <PUBCHEM_SHAPE_SELFOVERLAP>
741.48

> <PUBCHEM_SHAPE_VOLUME>
204.8

> <PUBCHEM_COORDINATE_TYPE>
2
5
10

$$$$
