71280862
  -OEChem-05072200023D

 38 40  0     0  0  0  0  0  0999 V2000
    2.7608    3.7141    0.0770 O   0  0  0  0  0  0  0  0  0  0  0  0
    4.2377    2.0287   -0.3038 O   0  0  0  0  0  0  0  0  0  0  0  0
    5.6121   -2.3567    1.4644 O   0  0  0  0  0  0  0  0  0  0  0  0
    5.1199   -2.4806   -0.7499 O   0  0  0  0  0  0  0  0  0  0  0  0
    0.6224    2.0192    0.0084 N   0  0  0  0  0  0  0  0  0  0  0  0
    1.8255    0.1920   -0.3672 C   0  0  0  0  0  0  0  0  0  0  0  0
    0.4542   -0.1830   -0.3065 C   0  0  0  0  0  0  0  0  0  0  0  0
   -0.2791    0.9818   -0.0698 C   0  0  0  0  0  0  0  0  0  0  0  0
    2.9663   -0.7191   -0.6013 C   0  0  0  0  0  0  0  0  0  0  0  0
    1.8969    1.5519   -0.1702 C   0  0  0  0  0  0  0  0  0  0  0  0
   -1.6734    0.9853    0.0495 C   0  0  0  0  0  0  0  0  0  0  0  0
   -0.2358   -1.4053   -0.4306 C   0  0  0  0  0  0  0  0  0  0  0  0
   -2.3362   -0.2389   -0.0771 C   0  0  0  0  0  0  0  0  0  0  0  0
    3.7448   -1.0935    0.6717 C   0  0  0  0  0  0  0  0  0  0  0  0
   -1.6304   -1.4169   -0.3135 C   0  0  0  0  0  0  0  0  0  0  0  0
   -3.7791   -0.2807    0.0381 C   0  0  0  0  0  0  0  0  0  0  0  0
    3.0527    2.3932   -0.1456 C   0  0  0  0  0  0  0  0  0  0  0  0
    4.8747   -2.0480    0.3691 C   0  0  0  0  0  0  0  0  0  0  0  0
   -4.4410    0.6440    0.8456 C   0  0  0  0  0  0  0  0  0  0  0  0
   -4.5068   -1.2454   -0.6583 C   0  0  0  0  0  0  0  0  0  0  0  0
   -5.8310    0.6041    0.9569 C   0  0  0  0  0  0  0  0  0  0  0  0
   -5.8967   -1.2855   -0.5473 C   0  0  0  0  0  0  0  0  0  0  0  0
   -6.5588   -0.3607    0.2604 C   0  0  0  0  0  0  0  0  0  0  0  0
    2.6090   -1.6402   -1.0805 H   0  0  0  0  0  0  0  0  0  0  0  0
    3.6513   -0.2745   -1.3351 H   0  0  0  0  0  0  0  0  0  0  0  0
    0.3753    2.9854    0.1735 H   0  0  0  0  0  0  0  0  0  0  0  0
   -2.1872    1.9284    0.2027 H   0  0  0  0  0  0  0  0  0  0  0  0
    0.2982   -2.3348   -0.6059 H   0  0  0  0  0  0  0  0  0  0  0  0
    3.0721   -1.5788    1.3882 H   0  0  0  0  0  0  0  0  0  0  0  0
    4.1673   -0.1997    1.1418 H   0  0  0  0  0  0  0  0  0  0  0  0
   -2.1194   -2.3855   -0.3826 H   0  0  0  0  0  0  0  0  0  0  0  0
   -3.9154    1.3929    1.4317 H   0  0  0  0  0  0  0  0  0  0  0  0
   -4.0393   -1.9655   -1.3242 H   0  0  0  0  0  0  0  0  0  0  0  0
   -6.3465    1.3196    1.5910 H   0  0  0  0  0  0  0  0  0  0  0  0
   -6.4646   -2.0320   -1.0949 H   0  0  0  0  0  0  0  0  0  0  0  0
   -7.6409   -0.3919    0.3469 H   0  0  0  0  0  0  0  0  0  0  0  0
    3.5713    4.2667    0.0885 H   0  0  0  0  0  0  0  0  0  0  0  0
    6.3495   -2.9669    1.2494 H   0  0  0  0  0  0  0  0  0  0  0  0
  1 17  1  0  0  0  0
  1 37  1  0  0  0  0
  2 17  2  0  0  0  0
  3 18  1  0  0  0  0
  3 38  1  0  0  0  0
  4 18  2  0  0  0  0
  5  8  1  0  0  0  0
  5 10  1  0  0  0  0
  5 26  1  0  0  0  0
  6  7  1  0  0  0  0
  6  9  1  0  0  0  0
  6 10  2  0  0  0  0
  7  8  2  0  0  0  0
  7 12  1  0  0  0  0
  8 11  1  0  0  0  0
  9 14  1  0  0  0  0
  9 24  1  0  0  0  0
  9 25  1  0  0  0  0
 10 17  1  0  0  0  0
 11 13  2  0  0  0  0
 11 27  1  0  0  0  0
 12 15  2  0  0  0  0
 12 28  1  0  0  0  0
 13 15  1  0  0  0  0
 13 16  1  0  0  0  0
 14 18  1  0  0  0  0
 14 29  1  0  0  0  0
 14 30  1  0  0  0  0
 15 31  1  0  0  0  0
 16 19  2  0  0  0  0
 16 20  1  0  0  0  0
 19 21  1  0  0  0  0
 19 32  1  0  0  0  0
 20 22  2  0  0  0  0
 20 33  1  0  0  0  0
 21 23  2  0  0  0  0
 21 34  1  0  0  0  0
 22 23  1  0  0  0  0
 22 35  1  0  0  0  0
 23 36  1  0  0  0  0
M  END
> <PUBCHEM_COMPOUND_CID>
71280862

> <PUBCHEM_CONFORMER_RMSD>
0.8

> <PUBCHEM_CONFORMER_DIVERSEORDER>
1
8
5
3
4
10
9
6
7
2

> <PUBCHEM_MMFF94_PARTIAL_CHARGES>
31
1 -0.65
10 -0.24
11 -0.15
12 -0.15
14 0.06
15 -0.15
17 0.81
18 0.66
19 -0.15
2 -0.57
20 -0.15
21 -0.15
22 -0.15
23 -0.15
26 0.27
27 0.15
28 0.15
3 -0.65
31 0.15
32 0.15
33 0.15
34 0.15
35 0.15
36 0.15
37 0.5
38 0.5
4 -0.57
5 0.03
6 -0.18
8 -0.15
9 0.18

> <PUBCHEM_EFFECTIVE_ROTOR_COUNT>
5

> <PUBCHEM_PHARMACOPHORE_FEATURES>
11
1 1 acceptor
1 2 acceptor
1 3 acceptor
1 4 acceptor
1 5 cation
1 5 donor
3 1 2 17 anion
3 3 4 18 anion
5 5 6 7 8 10 rings
6 16 19 20 21 22 23 rings
6 7 8 11 12 13 15 rings

> <PUBCHEM_HEAVY_ATOM_COUNT>
23

> <PUBCHEM_ATOM_DEF_STEREO_COUNT>
0

> <PUBCHEM_ATOM_UDEF_STEREO_COUNT>
0

> <PUBCHEM_BOND_DEF_STEREO_COUNT>
0

> <PUBCHEM_BOND_UDEF_STEREO_COUNT>
0

> <PUBCHEM_ISOTOPIC_ATOM_COUNT>
0

> <PUBCHEM_COMPONENT_COUNT>
1

> <PUBCHEM_CACTVS_TAUTO_COUNT>
6

> <PUBCHEM_CONFORMER_ID>
043FA8DE00000001

> <PUBCHEM_MMFF94_ENERGY>
52.5551

> <PUBCHEM_FEATURE_SELFOVERLAP>
56.028

> <PUBCHEM_SHAPE_FINGERPRINT>
10411042 1 18338517418380931294
10595046 47 18199468947368551293
10912923 1 18059863908745146849
1100329 8 18409727382810901362
12107183 9 18198070170941265081
12166972 35 18130788940754209058
12236239 1 18272090518015300675
12403259 415 17822003208149367839
12403260 363 18342740706799137689
12516196 113 18410854322711265450
12616971 3 18272369780867680375
13073987 5 18340491174917796569
13140716 1 18410295856097202155
13533116 47 18410574011026906112
13540713 5 18128807736659877471
13782708 43 17894348874113141995
13785724 45 18055081951855488246
13862211 1 18336262353754401699
13911852 28 18119805816205331618
13955234 65 18338514265616882848
14251764 18 18342455950008489834
14739800 52 17417241181943010912
15042514 8 17977945683938918354
15196674 1 18341617049007420965
15250474 111 18059846324991555255
15475509 35 17168139027130142394
1577012 14 18202288030958112925
15927050 60 18122627421156753070
17349148 13 18131636685915723287
17980427 26 17627771335024126964
1813 80 18337677399918628646
18222031 100 18342181021068399062
20028762 73 18273493464202964919
20612939 158 18409729582250024325
20645477 70 18408602578093682798
20832881 197 18187365385350817210
21033648 29 17168412840581314367
21065198 48 18343305898909999809
21267235 1 18410863118139720886
21344244 78 18200863024870066944
21421861 104 18261098704393474416
21859007 373 17896577532505841445
22182313 1 17750211708283230396
23081809 10 17988645229352468167
23522609 53 18047223840814585413
23559900 14 17458634444374158379
25147074 1 18130213986298766510
3004659 81 18272379675960569028
335352 9 18411984624848511807
3411729 13 18341331214765914656
3421961 26 18410008832460062320
345986 75 18190727640405924394
34797466 226 15792023310989462135
34934 24 18198623430941921116
350125 39 18410858728688477645
4073 2 18116439338996263451
465052 167 18408610248800168071
5104073 3 18271534182137501155
67856867 119 18272929474766451233
7970288 3 18263638477174860394
8863177 126 17895772797368491931
9971528 1 18040717008658458357
9981440 41 17547281667484231720

> <PUBCHEM_SHAPE_MULTIPOLES>
444.87
14.42
2.84
0.87
9.46
1.41
-0.15
-6.41
-2.53
-5.49
-0.05
-0.12
-0.28
-1.45

> <PUBCHEM_SHAPE_SELFOVERLAP>
981.199

> <PUBCHEM_SHAPE_VOLUME>
240.2

> <PUBCHEM_COORDINATE_TYPE>
2
5
10

$$$$
