15747650
  -OEChem-05072200093D

 28 29  0     0  0  0  0  0  0999 V2000
   -0.6019   -2.5724   -0.6101 F   0  0  0  0  0  0  0  0  0  0  0  0
   -4.9772   -1.0532    0.3593 F   0  0  0  0  0  0  0  0  0  0  0  0
    0.6734    3.9829    0.1929 O   0  0  0  0  0  0  0  0  0  0  0  0
    2.3926    2.5838   -0.3103 O   0  0  0  0  0  0  0  0  0  0  0  0
    4.2500   -2.0882    1.3459 O   0  0  0  0  0  0  0  0  0  0  0  0
    4.0709   -1.7532   -0.8914 O   0  0  0  0  0  0  0  0  0  0  0  0
   -1.1457    1.9482    0.1831 N   0  0  0  0  0  0  0  0  0  0  0  0
    0.3278    0.3631   -0.3099 C   0  0  0  0  0  0  0  0  0  0  0  0
   -0.9539   -0.2431   -0.1891 C   0  0  0  0  0  0  0  0  0  0  0  0
    1.5934   -0.3317   -0.6297 C   0  0  0  0  0  0  0  0  0  0  0  0
   -1.8604    0.7733    0.1206 C   0  0  0  0  0  0  0  0  0  0  0  0
    0.1776    1.7105   -0.0756 C   0  0  0  0  0  0  0  0  0  0  0  0
    2.3696   -0.8440    0.5994 C   0  0  0  0  0  0  0  0  0  0  0  0
   -1.4316   -1.5628   -0.3139 C   0  0  0  0  0  0  0  0  0  0  0  0
   -3.2258    0.5348    0.3125 C   0  0  0  0  0  0  0  0  0  0  0  0
   -2.7949   -1.8162   -0.1249 C   0  0  0  0  0  0  0  0  0  0  0  0
   -3.6764   -0.7821    0.1836 C   0  0  0  0  0  0  0  0  0  0  0  0
    1.1733    2.7366   -0.0828 C   0  0  0  0  0  0  0  0  0  0  0  0
    3.6392   -1.5862    0.2405 C   0  0  0  0  0  0  0  0  0  0  0  0
    1.3795   -1.1865   -1.2853 H   0  0  0  0  0  0  0  0  0  0  0  0
    2.2466    0.3079   -1.2348 H   0  0  0  0  0  0  0  0  0  0  0  0
   -1.5439    2.8539    0.3904 H   0  0  0  0  0  0  0  0  0  0  0  0
    2.6421    0.0007    1.2425 H   0  0  0  0  0  0  0  0  0  0  0  0
    1.7316   -1.5255    1.1744 H   0  0  0  0  0  0  0  0  0  0  0  0
   -3.9131    1.3390    0.5525 H   0  0  0  0  0  0  0  0  0  0  0  0
   -3.1689   -2.8320   -0.2200 H   0  0  0  0  0  0  0  0  0  0  0  0
    1.3775    4.6659    0.1809 H   0  0  0  0  0  0  0  0  0  0  0  0
    5.0667   -2.5822    1.1194 H   0  0  0  0  0  0  0  0  0  0  0  0
  1 14  1  0  0  0  0
  2 17  1  0  0  0  0
  3 18  1  0  0  0  0
  3 27  1  0  0  0  0
  4 18  2  0  0  0  0
  5 19  1  0  0  0  0
  5 28  1  0  0  0  0
  6 19  2  0  0  0  0
  7 11  1  0  0  0  0
  7 12  1  0  0  0  0
  7 22  1  0  0  0  0
  8  9  1  0  0  0  0
  8 10  1  0  0  0  0
  8 12  2  0  0  0  0
  9 11  2  0  0  0  0
  9 14  1  0  0  0  0
 10 13  1  0  0  0  0
 10 20  1  0  0  0  0
 10 21  1  0  0  0  0
 11 15  1  0  0  0  0
 12 18  1  0  0  0  0
 13 19  1  0  0  0  0
 13 23  1  0  0  0  0
 13 24  1  0  0  0  0
 14 16  2  0  0  0  0
 15 17  2  0  0  0  0
 15 25  1  0  0  0  0
 16 17  1  0  0  0  0
 16 26  1  0  0  0  0
M  END
> <PUBCHEM_COMPOUND_CID>
15747650

> <PUBCHEM_CONFORMER_RMSD>
0.6

> <PUBCHEM_CONFORMER_DIVERSEORDER>
1
13
5
9
4
16
10
2
12
7
8
15
11
6
14
3

> <PUBCHEM_MMFF94_PARTIAL_CHARGES>
23
1 -0.19
10 0.18
11 -0.15
12 -0.24
13 0.06
14 0.19
15 -0.15
16 -0.15
17 0.19
18 0.81
19 0.66
2 -0.19
22 0.27
25 0.15
26 0.15
27 0.5
28 0.5
3 -0.65
4 -0.57
5 -0.65
6 -0.57
7 0.03
8 -0.18

> <PUBCHEM_EFFECTIVE_ROTOR_COUNT>
4

> <PUBCHEM_PHARMACOPHORE_FEATURES>
10
1 3 acceptor
1 4 acceptor
1 5 acceptor
1 6 acceptor
1 7 cation
1 7 donor
3 3 4 18 anion
3 5 6 19 anion
5 7 8 9 11 12 rings
6 9 11 14 15 16 17 rings

> <PUBCHEM_HEAVY_ATOM_COUNT>
19

> <PUBCHEM_ATOM_DEF_STEREO_COUNT>
0

> <PUBCHEM_ATOM_UDEF_STEREO_COUNT>
0

> <PUBCHEM_BOND_DEF_STEREO_COUNT>
0

> <PUBCHEM_BOND_UDEF_STEREO_COUNT>
0

> <PUBCHEM_ISOTOPIC_ATOM_COUNT>
0

> <PUBCHEM_COMPONENT_COUNT>
1

> <PUBCHEM_CACTVS_TAUTO_COUNT>
2

> <PUBCHEM_CONFORMER_ID>
00F04A4200000001

> <PUBCHEM_MMFF94_ENERGY>
25.1824

> <PUBCHEM_FEATURE_SELFOVERLAP>
50.953

> <PUBCHEM_SHAPE_FINGERPRINT>
10967382 1 18267869565120715893
10989021 7 18411702096971751940
11578080 2 17604409848264781980
11680986 33 18191312782624181403
12507560 14 18342738516085975461
12553582 1 18410569561736641198
12644460 14 18264783223270648985
12788726 201 18190189992490153338
13140716 1 18341052900262947233
14178342 30 17986125006593197169
14790565 3 17763759688872081792
15042514 8 18121500146232050122
15375462 189 18113902611305447138
15442244 35 18412267250597018929
15475509 35 17458350779618619443
15536298 74 18342178924570282200
16945 1 18269286681412005221
17780758 139 17539661649057981378
17804303 29 18342740680512336707
18222031 100 18343860000503038262
20510252 161 17983291535058411488
20645477 70 18264483052628528047
21029758 27 18335990791435012118
21501502 16 18127128800095633823
21650355 55 18266168436170342952
2297311 6 18269564840953928230
2334 1 18412267272066860005
23366157 5 18115870882942384204
23402539 116 18199735951993910391
23463225 33 18411703218243150351
23559900 14 18341328984822877944
2748010 2 18339627958767727460
3091708 16 9355348062762768448
335352 9 18338801105255425589
43471831 8 17689992757799448656
45790113 53 18408881858721945893
5104073 3 18269287905978955795
58807428 26 17765138858773513448
5902787 121 18409449180719946214
7364860 26 18268151031628772244
81228 2 18054523404174271664
90316 7 18265894649116572368
9981440 41 17473537427009621313

> <PUBCHEM_SHAPE_MULTIPOLES>
348.01
6.93
3.56
0.79
0.06
3.04
0.06
-5.57
1.22
2.28
0.04
0.48
-0.28
-0.52

> <PUBCHEM_SHAPE_SELFOVERLAP>
756.967

> <PUBCHEM_SHAPE_VOLUME>
190.8

> <PUBCHEM_COORDINATE_TYPE>
2
5
10

$$$$
