446916
  -OEChem-05062223593D

 28 29  0     0  0  0  0  0  0999 V2000
   -0.3771   -2.8094   -0.6776 Cl  0  0  0  0  0  0  0  0  0  0  0  0
   -5.3724   -1.0445    0.4003 Cl  0  0  0  0  0  0  0  0  0  0  0  0
    0.7265    3.9719    0.1744 O   0  0  0  0  0  0  0  0  0  0  0  0
    2.4276    2.5462   -0.3158 O   0  0  0  0  0  0  0  0  0  0  0  0
    4.2608   -2.0597    1.3785 O   0  0  0  0  0  0  0  0  0  0  0  0
    4.0972   -1.7293   -0.8607 O   0  0  0  0  0  0  0  0  0  0  0  0
   -1.1206    1.9650    0.1686 N   0  0  0  0  0  0  0  0  0  0  0  0
    0.3298    0.3544   -0.3108 C   0  0  0  0  0  0  0  0  0  0  0  0
   -0.9617   -0.2311   -0.1911 C   0  0  0  0  0  0  0  0  0  0  0  0
    1.6050   -0.3297   -0.6210 C   0  0  0  0  0  0  0  0  0  0  0  0
   -1.8531    0.8009    0.1101 C   0  0  0  0  0  0  0  0  0  0  0  0
    0.1998    1.7052   -0.0843 C   0  0  0  0  0  0  0  0  0  0  0  0
    2.3760   -0.8327    0.6147 C   0  0  0  0  0  0  0  0  0  0  0  0
   -1.4592   -1.5440   -0.3102 C   0  0  0  0  0  0  0  0  0  0  0  0
   -3.2228    0.5846    0.2990 C   0  0  0  0  0  0  0  0  0  0  0  0
   -2.8270   -1.7752   -0.1238 C   0  0  0  0  0  0  0  0  0  0  0  0
   -3.6934   -0.7257    0.1760 C   0  0  0  0  0  0  0  0  0  0  0  0
    1.2100    2.7175   -0.0933 C   0  0  0  0  0  0  0  0  0  0  0  0
    3.6548   -1.5644    0.2672 C   0  0  0  0  0  0  0  0  0  0  0  0
    1.4590   -1.1440   -1.3353 H   0  0  0  0  0  0  0  0  0  0  0  0
    2.2635    0.3420   -1.1855 H   0  0  0  0  0  0  0  0  0  0  0  0
   -1.5053    2.8779    0.3697 H   0  0  0  0  0  0  0  0  0  0  0  0
    2.6382    0.0165    1.2564 H   0  0  0  0  0  0  0  0  0  0  0  0
    1.7433   -1.5162    1.1922 H   0  0  0  0  0  0  0  0  0  0  0  0
   -3.8881    1.4101    0.5324 H   0  0  0  0  0  0  0  0  0  0  0  0
   -3.2147   -2.7883   -0.2149 H   0  0  0  0  0  0  0  0  0  0  0  0
    1.4400    4.6451    0.1614 H   0  0  0  0  0  0  0  0  0  0  0  0
    5.0835   -2.5471    1.1593 H   0  0  0  0  0  0  0  0  0  0  0  0
  1 14  1  0  0  0  0
  2 17  1  0  0  0  0
  3 18  1  0  0  0  0
  3 27  1  0  0  0  0
  4 18  2  0  0  0  0
  5 19  1  0  0  0  0
  5 28  1  0  0  0  0
  6 19  2  0  0  0  0
  7 11  1  0  0  0  0
  7 12  1  0  0  0  0
  7 22  1  0  0  0  0
  8  9  1  0  0  0  0
  8 10  1  0  0  0  0
  8 12  2  0  0  0  0
  9 11  2  0  0  0  0
  9 14  1  0  0  0  0
 10 13  1  0  0  0  0
 10 20  1  0  0  0  0
 10 21  1  0  0  0  0
 11 15  1  0  0  0  0
 12 18  1  0  0  0  0
 13 19  1  0  0  0  0
 13 23  1  0  0  0  0
 13 24  1  0  0  0  0
 14 16  2  0  0  0  0
 15 17  2  0  0  0  0
 15 25  1  0  0  0  0
 16 17  1  0  0  0  0
 16 26  1  0  0  0  0
M  END
> <PUBCHEM_COMPOUND_CID>
446916

> <PUBCHEM_CONFORMER_RMSD>
0.6

> <PUBCHEM_CONFORMER_DIVERSEORDER>
2
9
10
6
13
12
3
11
1
5
7
4
8

> <PUBCHEM_MMFF94_PARTIAL_CHARGES>
23
1 -0.18
10 0.18
11 -0.15
12 -0.24
13 0.06
14 0.18
15 -0.15
16 -0.15
17 0.18
18 0.81
19 0.66
2 -0.18
22 0.27
25 0.15
26 0.15
27 0.5
28 0.5
3 -0.65
4 -0.57
5 -0.65
6 -0.57
7 0.03
8 -0.18

> <PUBCHEM_EFFECTIVE_ROTOR_COUNT>
4

> <PUBCHEM_PHARMACOPHORE_FEATURES>
10
1 3 acceptor
1 4 acceptor
1 5 acceptor
1 6 acceptor
1 7 cation
1 7 donor
3 3 4 18 anion
3 5 6 19 anion
5 7 8 9 11 12 rings
6 9 11 14 15 16 17 rings

> <PUBCHEM_HEAVY_ATOM_COUNT>
19

> <PUBCHEM_ATOM_DEF_STEREO_COUNT>
0

> <PUBCHEM_ATOM_UDEF_STEREO_COUNT>
0

> <PUBCHEM_BOND_DEF_STEREO_COUNT>
0

> <PUBCHEM_BOND_UDEF_STEREO_COUNT>
0

> <PUBCHEM_ISOTOPIC_ATOM_COUNT>
0

> <PUBCHEM_COMPONENT_COUNT>
1

> <PUBCHEM_CACTVS_TAUTO_COUNT>
2

> <PUBCHEM_CONFORMER_ID>
0006D1C400000002

> <PUBCHEM_MMFF94_ENERGY>
31.9225

> <PUBCHEM_FEATURE_SELFOVERLAP>
50.953

> <PUBCHEM_SHAPE_FINGERPRINT>
10967382 1 18267869560862606925
10989021 7 18411420621989766532
1100329 8 18337952393605657755
11578080 2 17676750025301881180
11680986 33 18191032407164399267
12507560 14 18342457045398924839
12553582 1 18410568466519987214
12644460 14 18264782123790663209
12788726 201 18190188897268224586
13140716 1 18341052904579007033
13862211 1 18411695470455139839
14178342 30 17985559857590133545
15042514 8 18121499051004898586
15375462 189 18113900412282230554
15442244 35 18412267250618117929
15475509 35 17385726932802674819
16945 1 18269285586200528589
17804303 29 18342177730574733147
18222031 100 18343298150019059654
20510252 161 18055349133407066008
20600515 1 18201725028584064032
20645477 70 18336824312118640103
20739085 24 18192457297346812697
21029758 27 18335708216946719151
21267235 1 18410584967436152726
21501502 16 18127128804406451367
21650355 55 18266167336669258184
22182313 1 18042101285266000589
2297311 6 18269283365945562558
2334 1 18268713986082837253
23366157 5 18116151262644386124
23402539 116 18199455585118833551
23463225 33 18411420635154399287
23559900 14 18341612675997451566
25147074 1 17986672786986308279
2748010 2 18339626863593206532
3091708 16 9355628438212046560
3286 77 18333452058295123111
335352 9 18338800014381166221
34934 24 18126287677552221436
350125 39 18410581682482334581
43471831 8 17689991662614397704
45790113 53 18408881858721945901
465052 167 18334305288035429499
5104073 3 18269287905989511787
58807428 26 17765138858768245200
5902787 121 18409167705748516802
7364860 26 18339927146379210972
81228 2 18054241924897325456
8863177 126 17824280391336642395
90316 7 18265612070354352656
9981440 41 17473818906297117025

> <PUBCHEM_SHAPE_MULTIPOLES>
366.29
7.52
3.65
0.82
2.57
2.58
-0.08
-5.08
-1.63
-2.88
0.11
-0.45
-0.35
-0.58

> <PUBCHEM_SHAPE_SELFOVERLAP>
774.317

> <PUBCHEM_SHAPE_VOLUME>
208

> <PUBCHEM_COORDINATE_TYPE>
2
5
10

$$$$
