71281161
  -OEChem-05072200063D

 48 51  0     0  0  0  0  0  0999 V2000
    1.9552    4.7655   -0.1541 O   0  0  0  0  0  0  0  0  0  0  0  0
    3.6288    3.2402   -0.3518 O   0  0  0  0  0  0  0  0  0  0  0  0
    5.4994   -0.6960    1.8494 O   0  0  0  0  0  0  0  0  0  0  0  0
    5.0807   -1.0986   -0.3468 O   0  0  0  0  0  0  0  0  0  0  0  0
    0.0343    2.8295   -0.0773 N   0  0  0  0  0  0  0  0  0  0  0  0
    0.1323    0.6028   -0.1773 C   0  0  0  0  0  0  0  0  0  0  0  0
    1.4509    1.1307   -0.2633 C   0  0  0  0  0  0  0  0  0  0  0  0
   -0.7374    1.6894   -0.0614 C   0  0  0  0  0  0  0  0  0  0  0  0
   -0.4065   -0.6991   -0.1871 C   0  0  0  0  0  0  0  0  0  0  0  0
    1.3580    2.5019   -0.1992 C   0  0  0  0  0  0  0  0  0  0  0  0
    2.7088    0.3626   -0.3954 C   0  0  0  0  0  0  0  0  0  0  0  0
   -2.1245    1.5384    0.0457 C   0  0  0  0  0  0  0  0  0  0  0  0
   -2.6361    0.2376    0.0338 C   0  0  0  0  0  0  0  0  0  0  0  0
   -1.7922   -0.8654   -0.0807 C   0  0  0  0  0  0  0  0  0  0  0  0
    0.4656   -1.8439   -0.3049 C   0  0  0  0  0  0  0  0  0  0  0  0
    3.5002    0.2219    0.9158 C   0  0  0  0  0  0  0  0  0  0  0  0
   -4.0660    0.0366    0.1428 C   0  0  0  0  0  0  0  0  0  0  0  0
    2.4059    3.4739   -0.2435 C   0  0  0  0  0  0  0  0  0  0  0  0
    0.7886   -2.3476   -1.5649 C   0  0  0  0  0  0  0  0  0  0  0  0
    0.9854   -2.4458    0.8410 C   0  0  0  0  0  0  0  0  0  0  0  0
    4.7537   -0.5967    0.7212 C   0  0  0  0  0  0  0  0  0  0  0  0
   -4.9452    0.9997   -0.3522 C   0  0  0  0  0  0  0  0  0  0  0  0
   -4.5643   -1.1199    0.7427 C   0  0  0  0  0  0  0  0  0  0  0  0
    1.6311   -3.4535   -1.6791 C   0  0  0  0  0  0  0  0  0  0  0  0
    1.8279   -3.5515    0.7269 C   0  0  0  0  0  0  0  0  0  0  0  0
    2.1508   -4.0554   -0.5331 C   0  0  0  0  0  0  0  0  0  0  0  0
   -6.3227    0.8064   -0.2474 C   0  0  0  0  0  0  0  0  0  0  0  0
   -5.9417   -1.3133    0.8475 C   0  0  0  0  0  0  0  0  0  0  0  0
   -6.8209   -0.3501    0.3526 C   0  0  0  0  0  0  0  0  0  0  0  0
    3.3502    0.8683   -1.1311 H   0  0  0  0  0  0  0  0  0  0  0  0
    2.5645   -0.6137   -0.8497 H   0  0  0  0  0  0  0  0  0  0  0  0
   -0.3278    3.7707   -0.0086 H   0  0  0  0  0  0  0  0  0  0  0  0
   -2.7433    2.4216    0.1640 H   0  0  0  0  0  0  0  0  0  0  0  0
   -2.1848   -1.8796   -0.1244 H   0  0  0  0  0  0  0  0  0  0  0  0
    2.8852   -0.2737    1.6746 H   0  0  0  0  0  0  0  0  0  0  0  0
    3.7911    1.2053    1.2988 H   0  0  0  0  0  0  0  0  0  0  0  0
    0.3927   -1.8898   -2.4684 H   0  0  0  0  0  0  0  0  0  0  0  0
    0.7443   -2.0654    1.8308 H   0  0  0  0  0  0  0  0  0  0  0  0
   -4.6053    1.9005   -0.8558 H   0  0  0  0  0  0  0  0  0  0  0  0
   -3.9205   -1.8821    1.1727 H   0  0  0  0  0  0  0  0  0  0  0  0
    1.8832   -3.8453   -2.6601 H   0  0  0  0  0  0  0  0  0  0  0  0
    2.2336   -4.0194    1.6191 H   0  0  0  0  0  0  0  0  0  0  0  0
    2.8075   -4.9158   -0.6218 H   0  0  0  0  0  0  0  0  0  0  0  0
   -7.0079    1.5527   -0.6389 H   0  0  0  0  0  0  0  0  0  0  0  0
   -6.3303   -2.2102    1.3211 H   0  0  0  0  0  0  0  0  0  0  0  0
    2.6944    5.4096   -0.1872 H   0  0  0  0  0  0  0  0  0  0  0  0
   -7.8934   -0.5006    0.4344 H   0  0  0  0  0  0  0  0  0  0  0  0
    6.3158   -1.2199    1.7037 H   0  0  0  0  0  0  0  0  0  0  0  0
  1 18  1  0  0  0  0
  1 46  1  0  0  0  0
  2 18  2  0  0  0  0
  3 21  1  0  0  0  0
  3 48  1  0  0  0  0
  4 21  2  0  0  0  0
  5  8  1  0  0  0  0
  5 10  1  0  0  0  0
  5 32  1  0  0  0  0
  6  7  1  0  0  0  0
  6  8  1  0  0  0  0
  6  9  2  0  0  0  0
  7 10  2  0  0  0  0
  7 11  1  0  0  0  0
  8 12  2  0  0  0  0
  9 14  1  0  0  0  0
  9 15  1  0  0  0  0
 10 18  1  0  0  0  0
 11 16  1  0  0  0  0
 11 30  1  0  0  0  0
 11 31  1  0  0  0  0
 12 13  1  0  0  0  0
 12 33  1  0  0  0  0
 13 14  2  0  0  0  0
 13 17  1  0  0  0  0
 14 34  1  0  0  0  0
 15 19  2  0  0  0  0
 15 20  1  0  0  0  0
 16 21  1  0  0  0  0
 16 35  1  0  0  0  0
 16 36  1  0  0  0  0
 17 22  2  0  0  0  0
 17 23  1  0  0  0  0
 19 24  1  0  0  0  0
 19 37  1  0  0  0  0
 20 25  2  0  0  0  0
 20 38  1  0  0  0  0
 22 27  1  0  0  0  0
 22 39  1  0  0  0  0
 23 28  2  0  0  0  0
 23 40  1  0  0  0  0
 24 26  2  0  0  0  0
 24 41  1  0  0  0  0
 25 26  1  0  0  0  0
 25 42  1  0  0  0  0
 26 43  1  0  0  0  0
 27 29  2  0  0  0  0
 27 44  1  0  0  0  0
 28 29  1  0  0  0  0
 28 45  1  0  0  0  0
 29 47  1  0  0  0  0
M  END
> <PUBCHEM_COMPOUND_CID>
71281161

> <PUBCHEM_CONFORMER_RMSD>
0.8

> <PUBCHEM_CONFORMER_DIVERSEORDER>
1
7
3
4
2
6
5

> <PUBCHEM_MMFF94_PARTIAL_CHARGES>
39
1 -0.65
10 -0.24
11 0.18
12 -0.15
14 -0.15
16 0.06
18 0.81
19 -0.15
2 -0.57
20 -0.15
21 0.66
22 -0.15
23 -0.15
24 -0.15
25 -0.15
26 -0.15
27 -0.15
28 -0.15
29 -0.15
3 -0.65
32 0.27
33 0.15
34 0.15
37 0.15
38 0.15
39 0.15
4 -0.57
40 0.15
41 0.15
42 0.15
43 0.15
44 0.15
45 0.15
46 0.5
47 0.15
48 0.5
5 0.03
7 -0.18
8 -0.15

> <PUBCHEM_EFFECTIVE_ROTOR_COUNT>
6

> <PUBCHEM_PHARMACOPHORE_FEATURES>
12
1 1 acceptor
1 2 acceptor
1 3 acceptor
1 4 acceptor
1 5 cation
1 5 donor
3 1 2 18 anion
3 3 4 21 anion
5 5 6 7 8 10 rings
6 15 19 20 24 25 26 rings
6 17 22 23 27 28 29 rings
6 6 8 9 12 13 14 rings

> <PUBCHEM_HEAVY_ATOM_COUNT>
29

> <PUBCHEM_ATOM_DEF_STEREO_COUNT>
0

> <PUBCHEM_ATOM_UDEF_STEREO_COUNT>
0

> <PUBCHEM_BOND_DEF_STEREO_COUNT>
0

> <PUBCHEM_BOND_UDEF_STEREO_COUNT>
0

> <PUBCHEM_ISOTOPIC_ATOM_COUNT>
0

> <PUBCHEM_COMPONENT_COUNT>
1

> <PUBCHEM_CACTVS_TAUTO_COUNT>
6

> <PUBCHEM_CONFORMER_ID>
043FAA0900000001

> <PUBCHEM_MMFF94_ENERGY>
80.3441

> <PUBCHEM_FEATURE_SELFOVERLAP>
61.104

> <PUBCHEM_SHAPE_FINGERPRINT>
10411042 1 18050571746557814767
10906281 52 18262536821940736705
1100329 8 18338231677948100114
11445158 3 18187075209087110436
11578080 2 16881311481982088150
11719270 70 18413386557850271023
11963148 33 18334852823003670099
12592029 89 18411422821166185035
13140716 1 18267302217183892099
13383668 362 18122331643827625672
13617811 41 18336838503180807436
138480 1 18338803290860860149
140371 6 18339652148313370673
14790565 3 18123192578453858525
14863182 85 18339369578041281286
14955137 171 18411136922626237018
15081414 286 18339929199505310787
15664445 248 18340216197957845804
15927050 60 17978513362540530452
16728300 4 17608062323061283290
18785283 64 18334860570886262253
1979834 28 18201151070630022090
20028762 73 18272650203018825631
20691752 17 17388840581753751786
20739085 24 18261115226674174317
20771845 140 17203612605585561023
20905425 154 17909269083914507030
21197605 99 18193847170165217075
22182313 1 18196365923058430719
23559900 14 18337107866059845675
24771293 8 18200577220771939344
255183 313 17985797459893153874
3178227 256 18410301336364228233
350125 39 18408041839943463029
465052 167 18186521011865327642
5104073 3 18336554927670203161
59755656 215 18409450241387289215
6669772 16 18199762499445197908
9709674 26 18335990813954691235
9999458 23 18335985354117139964

> <PUBCHEM_SHAPE_MULTIPOLES>
568.35
12
4.89
1.07
17.4
1.24
0.01
-1.03
-3.32
-6.48
1.08
-0.82
-0.78
0.47

> <PUBCHEM_SHAPE_SELFOVERLAP>
1268.396

> <PUBCHEM_SHAPE_VOLUME>
302.6

> <PUBCHEM_COORDINATE_TYPE>
2
5
10

$$$$
