90677009
  -OEChem-05072200033D

 28 29  0     0  0  0  0  0  0999 V2000
    0.2810    2.7794    0.6730 Cl  0  0  0  0  0  0  0  0  0  0  0  0
    5.3276    1.1312   -0.3493 Cl  0  0  0  0  0  0  0  0  0  0  0  0
   -0.6602   -4.0219   -0.2119 O   0  0  0  0  0  0  0  0  0  0  0  0
   -2.3978   -2.6359    0.2641 O   0  0  0  0  0  0  0  0  0  0  0  0
   -4.1530    2.2964   -1.2808 O   0  0  0  0  0  0  0  0  0  0  0  0
   -4.1166    1.5119    0.8508 O   0  0  0  0  0  0  0  0  0  0  0  0
    1.1419   -1.9743   -0.1778 N   0  0  0  0  0  0  0  0  0  0  0  0
   -0.3497   -0.3982    0.2889 C   0  0  0  0  0  0  0  0  0  0  0  0
    0.9295    0.2166    0.1860 C   0  0  0  0  0  0  0  0  0  0  0  0
   -1.6437    0.2557    0.5862 C   0  0  0  0  0  0  0  0  0  0  0  0
    1.8474   -0.7942   -0.1075 C   0  0  0  0  0  0  0  0  0  0  0  0
   -0.1867   -1.7450    0.0603 C   0  0  0  0  0  0  0  0  0  0  0  0
   -2.2696    0.9851   -0.6145 C   0  0  0  0  0  0  0  0  0  0  0  0
    1.3959    1.5399    0.3145 C   0  0  0  0  0  0  0  0  0  0  0  0
    3.2140   -0.5466   -0.2795 C   0  0  0  0  0  0  0  0  0  0  0  0
    2.7602    1.8025    0.1452 C   0  0  0  0  0  0  0  0  0  0  0  0
    3.6535    0.7738   -0.1472 C   0  0  0  0  0  0  0  0  0  0  0  0
   -1.1741   -2.7793    0.0550 C   0  0  0  0  0  0  0  0  0  0  0  0
   -3.5996    1.6028   -0.2555 C   0  0  0  0  0  0  0  0  0  0  0  0
   -1.5220    0.9519    1.4245 H   2  0  0  0  0  0  0  0  0  0  0  0
   -2.3700   -0.4594    0.9840 H   2  0  0  0  0  0  0  0  0  0  0  0
    1.5495   -2.8777   -0.3768 H   0  0  0  0  0  0  0  0  0  0  0  0
   -2.4494    0.2629   -1.4201 H   2  0  0  0  0  0  0  0  0  0  0  0
   -1.6165    1.7670   -1.0080 H   2  0  0  0  0  0  0  0  0  0  0  0
    3.9006   -1.3561   -0.5070 H   0  0  0  0  0  0  0  0  0  0  0  0
    3.1238    2.8238    0.2440 H   0  0  0  0  0  0  0  0  0  0  0  0
   -1.3590   -4.7106   -0.2092 H   0  0  0  0  0  0  0  0  0  0  0  0
   -5.0097    2.7021   -1.0283 H   0  0  0  0  0  0  0  0  0  0  0  0
  1 14  1  0  0  0  0
  2 17  1  0  0  0  0
  3 18  1  0  0  0  0
  3 27  1  0  0  0  0
  4 18  2  0  0  0  0
  5 19  1  0  0  0  0
  5 28  1  0  0  0  0
  6 19  2  0  0  0  0
  7 11  1  0  0  0  0
  7 12  1  0  0  0  0
  7 22  1  0  0  0  0
  8  9  1  0  0  0  0
  8 10  1  0  0  0  0
  8 12  2  0  0  0  0
  9 11  2  0  0  0  0
  9 14  1  0  0  0  0
 10 13  1  0  0  0  0
 10 20  1  0  0  0  0
 10 21  1  0  0  0  0
 11 15  1  0  0  0  0
 12 18  1  0  0  0  0
 13 19  1  0  0  0  0
 13 23  1  0  0  0  0
 13 24  1  0  0  0  0
 14 16  2  0  0  0  0
 15 17  2  0  0  0  0
 15 25  1  0  0  0  0
 16 17  1  0  0  0  0
 16 26  1  0  0  0  0
M  ISO  4  20   3  21   3  23   3  24   3
M  END
> <PUBCHEM_COMPOUND_CID>
90677009

> <PUBCHEM_CONFORMER_RMSD>
0.6

> <PUBCHEM_CONFORMER_DIVERSEORDER>
1
13
8
6
7
12
15
9
14
11
3
4
2
10
5

> <PUBCHEM_MMFF94_PARTIAL_CHARGES>
23
1 -0.18
10 0.18
11 -0.15
12 -0.24
13 0.06
14 0.18
15 -0.15
16 -0.15
17 0.18
18 0.81
19 0.66
2 -0.18
22 0.27
25 0.15
26 0.15
27 0.5
28 0.5
3 -0.65
4 -0.57
5 -0.65
6 -0.57
7 0.03
8 -0.18

> <PUBCHEM_EFFECTIVE_ROTOR_COUNT>
4

> <PUBCHEM_PHARMACOPHORE_FEATURES>
10
1 3 acceptor
1 4 acceptor
1 5 acceptor
1 6 acceptor
1 7 cation
1 7 donor
3 3 4 18 anion
3 5 6 19 anion
5 7 8 9 11 12 rings
6 9 11 14 15 16 17 rings

> <PUBCHEM_HEAVY_ATOM_COUNT>
19

> <PUBCHEM_ATOM_DEF_STEREO_COUNT>
0

> <PUBCHEM_ATOM_UDEF_STEREO_COUNT>
0

> <PUBCHEM_BOND_DEF_STEREO_COUNT>
0

> <PUBCHEM_BOND_UDEF_STEREO_COUNT>
0

> <PUBCHEM_ISOTOPIC_ATOM_COUNT>
4

> <PUBCHEM_COMPONENT_COUNT>
1

> <PUBCHEM_CACTVS_TAUTO_COUNT>
5

> <PUBCHEM_CONFORMER_ID>
05679F1100000001

> <PUBCHEM_MMFF94_ENERGY>
33.0353

> <PUBCHEM_FEATURE_SELFOVERLAP>
50.953

> <PUBCHEM_SHAPE_FINGERPRINT>
10411042 1 17618224352837832618
10693767 8 17698712615295215135
10967382 1 18339645512441023266
1100329 8 18263919935055812154
12293681 160 17988639640835970256
12403259 226 17766279056546758642
12500047 106 18410571816620416492
12730499 353 18191307079456465709
13140716 1 18410291376720710306
13583140 156 16733253616823024265
14790565 3 18268443342851013416
16945 1 18269285586189985578
18186145 218 18342178808727653413
18219364 16 18338245890242789761
19591789 44 18410859854228157651
19784866 34 18340206267787956281
20645477 70 18046900481943791293
20739085 24 17976001785429866920
20871999 31 18265339585113522668
21524375 3 18333449841817587667
22182313 1 18058751194251058582
2334 1 18268713981756227930
23402539 116 18272081695783521652
23402655 69 18271801268441500421
23557571 272 18199764694484644004
23558518 356 17973440202636207784
23559900 14 18272375287511794620
238 59 17539650687931501253
25 1 18339921519798025349
2748010 2 18199755902517660250
3060560 45 18266732485566716575
3084891 72 18341609261820295696
34934 24 18410007750418590544
350125 39 18194691590145701705
352729 6 18340775844733360730
394222 165 17896878759904887904
5104073 3 18337387258072422568
53917941 68 18339906204071216148
559249 180 18408038520919842554
633830 44 17986683558389649205
81228 2 17900815269340879641
8272917 22 18052819140214732013

> <PUBCHEM_SHAPE_MULTIPOLES>
366.29
7.35
3.75
0.8
2.77
2.77
0.05
-5.13
1.36
-3.03
0.03
-0.39
-0.34
0.59

> <PUBCHEM_SHAPE_SELFOVERLAP>
775.116

> <PUBCHEM_SHAPE_VOLUME>
207.7

> <PUBCHEM_COORDINATE_TYPE>
2
5
10

$$$$
