71281465
  -OEChem-05072200053D

 34 35  0     0  0  0  0  0  0999 V2000
    0.8589    3.8912    0.1089 O   0  0  0  0  0  0  0  0  0  0  0  0
    2.5012    2.3897   -0.3548 O   0  0  0  0  0  0  0  0  0  0  0  0
    4.4841   -1.7699    1.3152 O   0  0  0  0  0  0  0  0  0  0  0  0
    3.8980   -1.9575   -0.8715 O   0  0  0  0  0  0  0  0  0  0  0  0
   -1.0670    1.9578    0.1426 N   0  0  0  0  0  0  0  0  0  0  0  0
   -0.9931   -0.2493   -0.1747 C   0  0  0  0  0  0  0  0  0  0  0  0
    0.3197    0.2837   -0.3064 C   0  0  0  0  0  0  0  0  0  0  0  0
   -1.8439    0.8218    0.1068 C   0  0  0  0  0  0  0  0  0  0  0  0
    1.5521   -0.4785   -0.6038 C   0  0  0  0  0  0  0  0  0  0  0  0
    0.2419    1.6427   -0.1061 C   0  0  0  0  0  0  0  0  0  0  0  0
   -1.5408   -1.5441   -0.2684 C   0  0  0  0  0  0  0  0  0  0  0  0
   -3.2207    0.6620    0.3001 C   0  0  0  0  0  0  0  0  0  0  0  0
   -3.7414   -0.6316    0.2024 C   0  0  0  0  0  0  0  0  0  0  0  0
   -2.9163   -1.7191   -0.0774 C   0  0  0  0  0  0  0  0  0  0  0  0
    2.4357   -0.7507    0.6255 C   0  0  0  0  0  0  0  0  0  0  0  0
   -0.7136   -2.7554   -0.5660 C   0  0  0  0  0  0  0  0  0  0  0  0
    1.2915    2.6134   -0.1352 C   0  0  0  0  0  0  0  0  0  0  0  0
   -5.2051   -0.8491    0.4020 C   0  0  0  0  0  0  0  0  0  0  0  0
    3.6587   -1.5572    0.2607 C   0  0  0  0  0  0  0  0  0  0  0  0
    1.3382   -1.4136   -1.1237 H   0  0  0  0  0  0  0  0  0  0  0  0
    2.1440    0.0806   -1.3419 H   0  0  0  0  0  0  0  0  0  0  0  0
   -1.4162    2.8885    0.3264 H   0  0  0  0  0  0  0  0  0  0  0  0
   -3.8541    1.5157    0.5194 H   0  0  0  0  0  0  0  0  0  0  0  0
   -3.3517   -2.7141   -0.1464 H   0  0  0  0  0  0  0  0  0  0  0  0
    1.8674   -1.3167    1.3723 H   0  0  0  0  0  0  0  0  0  0  0  0
    2.7667    0.1885    1.0801 H   0  0  0  0  0  0  0  0  0  0  0  0
   -0.3545   -2.7276   -1.5991 H   0  0  0  0  0  0  0  0  0  0  0  0
    0.1274   -2.8338    0.1290 H   0  0  0  0  0  0  0  0  0  0  0  0
   -1.2944   -3.6779   -0.4523 H   0  0  0  0  0  0  0  0  0  0  0  0
   -5.4021   -1.1513    1.4354 H   0  0  0  0  0  0  0  0  0  0  0  0
   -5.7768    0.0610    0.1906 H   0  0  0  0  0  0  0  0  0  0  0  0
   -5.5809   -1.6266   -0.2719 H   0  0  0  0  0  0  0  0  0  0  0  0
    1.5989    4.5348    0.0826 H   0  0  0  0  0  0  0  0  0  0  0  0
    5.2797   -2.2837    1.0597 H   0  0  0  0  0  0  0  0  0  0  0  0
  1 17  1  0  0  0  0
  1 33  1  0  0  0  0
  2 17  2  0  0  0  0
  3 19  1  0  0  0  0
  3 34  1  0  0  0  0
  4 19  2  0  0  0  0
  5  8  1  0  0  0  0
  5 10  1  0  0  0  0
  5 22  1  0  0  0  0
  6  7  1  0  0  0  0
  6  8  1  0  0  0  0
  6 11  2  0  0  0  0
  7  9  1  0  0  0  0
  7 10  2  0  0  0  0
  8 12  2  0  0  0  0
  9 15  1  0  0  0  0
  9 20  1  0  0  0  0
  9 21  1  0  0  0  0
 10 17  1  0  0  0  0
 11 14  1  0  0  0  0
 11 16  1  0  0  0  0
 12 13  1  0  0  0  0
 12 23  1  0  0  0  0
 13 14  2  0  0  0  0
 13 18  1  0  0  0  0
 14 24  1  0  0  0  0
 15 19  1  0  0  0  0
 15 25  1  0  0  0  0
 15 26  1  0  0  0  0
 16 27  1  0  0  0  0
 16 28  1  0  0  0  0
 16 29  1  0  0  0  0
 18 30  1  0  0  0  0
 18 31  1  0  0  0  0
 18 32  1  0  0  0  0
M  END
> <PUBCHEM_COMPOUND_CID>
71281465

> <PUBCHEM_CONFORMER_RMSD>
0.6

> <PUBCHEM_CONFORMER_DIVERSEORDER>
2
10
7
12
9
15
4
13
14
1
8
6
11
3
5

> <PUBCHEM_MMFF94_PARTIAL_CHARGES>
23
1 -0.65
10 -0.24
11 -0.14
12 -0.15
13 -0.14
14 -0.15
15 0.06
16 0.14
17 0.81
18 0.14
19 0.66
2 -0.57
22 0.27
23 0.15
24 0.15
3 -0.65
33 0.5
34 0.5
4 -0.57
5 0.03
7 -0.18
8 -0.15
9 0.18

> <PUBCHEM_EFFECTIVE_ROTOR_COUNT>
4

> <PUBCHEM_PHARMACOPHORE_FEATURES>
10
1 1 acceptor
1 2 acceptor
1 3 acceptor
1 4 acceptor
1 5 cation
1 5 donor
3 1 2 17 anion
3 3 4 19 anion
5 5 6 7 8 10 rings
6 6 8 11 12 13 14 rings

> <PUBCHEM_HEAVY_ATOM_COUNT>
19

> <PUBCHEM_ATOM_DEF_STEREO_COUNT>
0

> <PUBCHEM_ATOM_UDEF_STEREO_COUNT>
0

> <PUBCHEM_BOND_DEF_STEREO_COUNT>
0

> <PUBCHEM_BOND_UDEF_STEREO_COUNT>
0

> <PUBCHEM_ISOTOPIC_ATOM_COUNT>
0

> <PUBCHEM_COMPONENT_COUNT>
1

> <PUBCHEM_CACTVS_TAUTO_COUNT>
32

> <PUBCHEM_CONFORMER_ID>
043FAB3900000002

> <PUBCHEM_MMFF94_ENERGY>
33.5963

> <PUBCHEM_FEATURE_SELFOVERLAP>
50.953

> <PUBCHEM_SHAPE_FINGERPRINT>
10967382 1 18339928245859144805
10989021 7 18410576188496138700
1100329 8 18409728504076875539
11578080 2 17604692431227029988
11680986 33 18191032402890498507
12507560 14 18342739615602897437
12553582 1 18410851041050478246
12644460 14 18264501743972616729
13140716 1 18340775853719174721
13862211 1 18411132516206731703
14178342 30 17985560952780524201
15042514 8 18121217571822871930
15375462 189 18041559148534074482
15442244 35 18412267250591718177
15475509 35 17385729131788987627
15536298 74 18341333395754368936
16945 1 18269005210761832437
17804303 29 18340772554767169867
18222031 100 18343017770338111278
20510252 161 18055349133370149280
20600515 1 18201443549312386080
20645477 70 18336542832820588383
20739085 24 18192178012798187241
21029758 27 18335426737675015222
21267235 1 18410303492464697282
21501502 16 18126846229875927911
21650355 55 18265886965530778088
22182313 1 18042103479978477589
2297311 6 18269000787183362310
2334 1 18340491187502323285
23366157 5 18043530718732164652
23402539 116 18199454489881113023
23463225 33 18411702123042262151
23557571 272 18200319806349622894
23559900 14 18341894146705562190
25147074 1 17986392407199838839
2748010 2 18339066104004566916
3091708 16 9283570839900302272
3286 77 18261112984969666967
335352 9 18338801109587251197
34934 24 18197781213561571908
350125 39 18410299099398838757
43471831 8 17689992762131319712
45790113 53 18408600379445025669
465052 167 18261685839302893331
5104073 3 18268442377221090763
5902787 121 18408322181348994114
7364860 26 18340208617082053340
81228 2 18054244128257642376
8863177 126 17823718536573462371
90316 7 18265330595382942720
9709674 26 18191870234972302859
9981440 41 17545595021010632481

> <PUBCHEM_SHAPE_MULTIPOLES>
362.55
7.48
3.47
0.79
1.31
2.38
-0.07
-4.79
-1.66
-2.61
0.21
-0.44
-0.28
-0.52

> <PUBCHEM_SHAPE_SELFOVERLAP>
780.361

> <PUBCHEM_SHAPE_VOLUME>
201.8

> <PUBCHEM_COORDINATE_TYPE>
2
5
10

$$$$
