11556341
  -OEChem-04212206323D

 73 77  0     1  0  0  0  0  0999 V2000
   -9.0402   -2.3845    1.0489 Cl  0  0  0  0  0  0  0  0  0  0  0  0
    4.3482   -1.1203    1.1711 S   0  0  0  0  0  0  0  0  0  0  0  0
    6.7541   -2.2362   -2.2433 O   0  0  0  0  0  0  0  0  0  0  0  0
    4.6315   -2.8287   -2.8125 O   0  0  0  0  0  0  0  0  0  0  0  0
   -0.6141    3.0685    0.4113 O   0  0  0  0  0  0  0  0  0  0  0  0
    0.7765    4.7651    1.1091 O   0  0  0  0  0  0  0  0  0  0  0  0
   -4.2998   -0.7170    0.3443 N   0  0  0  0  0  0  0  0  0  0  0  0
    4.1881   -3.5474   -0.0367 C   0  0  0  0  0  0  0  0  0  0  0  0
    3.9659   -4.5431    1.0636 C   0  0  0  0  0  0  0  0  0  0  0  0
    3.3637   -4.7753   -0.2912 C   0  0  0  0  0  0  0  0  0  0  0  0
    3.4798   -2.2377    0.0538 C   0  0  0  0  0  0  0  0  0  0  0  0
    5.5426   -3.4776   -0.6498 C   0  0  0  0  0  0  0  0  0  0  0  0
    5.5553   -2.8303   -2.0126 C   0  0  0  0  0  0  0  0  0  0  0  0
    3.1990    0.3172    1.0078 C   0  0  2  0  0  0  0  0  0  0  0  0
    4.0101    1.6232    1.2457 C   0  0  0  0  0  0  0  0  0  0  0  0
    1.9916    0.1223    1.8612 C   0  0  0  0  0  0  0  0  0  0  0  0
    3.2442    2.9100    0.8859 C   0  0  0  0  0  0  0  0  0  0  0  0
    0.7369   -0.0280    1.2707 C   0  0  0  0  0  0  0  0  0  0  0  0
    2.1170    0.0908    3.2500 C   0  0  0  0  0  0  0  0  0  0  0  0
    2.6838    2.9608   -0.5121 C   0  0  0  0  0  0  0  0  0  0  0  0
   -0.3924   -0.2097    2.0690 C   0  0  0  0  0  0  0  0  0  0  0  0
    0.9878   -0.0911    4.0484 C   0  0  0  0  0  0  0  0  0  0  0  0
   -0.2669   -0.2414    3.4578 C   0  0  0  0  0  0  0  0  0  0  0  0
    1.3826    3.4027   -0.7514 C   0  0  0  0  0  0  0  0  0  0  0  0
    3.4896    2.5563   -1.5763 C   0  0  0  0  0  0  0  0  0  0  0  0
   -1.7184   -0.3679    1.4459 C   0  0  0  0  0  0  0  0  0  0  0  0
    0.8873    3.4400   -2.0548 C   0  0  0  0  0  0  0  0  0  0  0  0
    2.9944    2.5936   -2.8797 C   0  0  0  0  0  0  0  0  0  0  0  0
    0.5193    3.8303    0.3411 C   0  0  0  0  0  0  0  0  0  0  0  0
    1.6932    3.0354   -3.1191 C   0  0  0  0  0  0  0  0  0  0  0  0
   -2.0404    0.0145    0.1875 C   0  0  0  0  0  0  0  0  0  0  0  0
   -3.3441   -0.1591   -0.4335 C   0  0  0  0  0  0  0  0  0  0  0  0
   -3.5433    0.2367   -1.7406 C   0  0  0  0  0  0  0  0  0  0  0  0
   -1.5465    3.3935    1.4480 C   0  0  0  0  0  0  0  0  0  0  0  0
   -5.5245   -0.8999   -0.1846 C   0  0  0  0  0  0  0  0  0  0  0  0
   -4.8062    0.0469   -2.2829 C   0  0  0  0  0  0  0  0  0  0  0  0
   -5.8254   -0.5275   -1.5115 C   0  0  0  0  0  0  0  0  0  0  0  0
   -6.5374   -1.4707    0.5811 C   0  0  0  0  0  0  0  0  0  0  0  0
   -7.1148   -0.7332   -2.0313 C   0  0  0  0  0  0  0  0  0  0  0  0
   -7.8193   -1.6752    0.0647 C   0  0  0  0  0  0  0  0  0  0  0  0
   -8.1086   -1.3062   -1.2431 C   0  0  0  0  0  0  0  0  0  0  0  0
    4.7893   -5.1807    1.3637 H   0  0  0  0  0  0  0  0  0  0  0  0
    3.2912   -4.2915    1.8736 H   0  0  0  0  0  0  0  0  0  0  0  0
    3.7815   -5.5709   -0.8968 H   0  0  0  0  0  0  0  0  0  0  0  0
    2.2892   -4.6733   -0.3881 H   0  0  0  0  0  0  0  0  0  0  0  0
    3.3737   -1.7696   -0.9286 H   0  0  0  0  0  0  0  0  0  0  0  0
    2.4650   -2.3871    0.4395 H   0  0  0  0  0  0  0  0  0  0  0  0
    6.2281   -2.9332    0.0100 H   0  0  0  0  0  0  0  0  0  0  0  0
    5.9735   -4.4791   -0.7778 H   0  0  0  0  0  0  0  0  0  0  0  0
    2.9011    0.3150   -0.0454 H   0  0  0  0  0  0  0  0  0  0  0  0
    4.9397    1.5920    0.6628 H   0  0  0  0  0  0  0  0  0  0  0  0
    4.3214    1.6960    2.2960 H   0  0  0  0  0  0  0  0  0  0  0  0
    6.7859   -1.8074   -3.1251 H   0  0  0  0  0  0  0  0  0  0  0  0
    3.9135    3.7701    1.0150 H   0  0  0  0  0  0  0  0  0  0  0  0
    2.4599    3.0211    1.6406 H   0  0  0  0  0  0  0  0  0  0  0  0
    0.6724   -0.0207    0.1864 H   0  0  0  0  0  0  0  0  0  0  0  0
    3.0835    0.2075    3.7325 H   0  0  0  0  0  0  0  0  0  0  0  0
    1.0854   -0.1147    5.1299 H   0  0  0  0  0  0  0  0  0  0  0  0
   -1.1363   -0.3802    4.0958 H   0  0  0  0  0  0  0  0  0  0  0  0
    4.5118    2.2242   -1.4231 H   0  0  0  0  0  0  0  0  0  0  0  0
   -2.4685   -0.8300    2.0839 H   0  0  0  0  0  0  0  0  0  0  0  0
   -0.1235    3.7847   -2.2578 H   0  0  0  0  0  0  0  0  0  0  0  0
    3.6230    2.2822   -3.7088 H   0  0  0  0  0  0  0  0  0  0  0  0
    1.3082    3.0658   -4.1342 H   0  0  0  0  0  0  0  0  0  0  0  0
   -1.2996    0.4931   -0.4464 H   0  0  0  0  0  0  0  0  0  0  0  0
   -2.7561    0.6820   -2.3400 H   0  0  0  0  0  0  0  0  0  0  0  0
   -1.1399    3.0917    2.4173 H   0  0  0  0  0  0  0  0  0  0  0  0
   -1.7735    4.4640    1.4427 H   0  0  0  0  0  0  0  0  0  0  0  0
   -2.4731    2.8447    1.2632 H   0  0  0  0  0  0  0  0  0  0  0  0
   -4.9913    0.3498   -3.3109 H   0  0  0  0  0  0  0  0  0  0  0  0
   -6.3209   -1.7636    1.6080 H   0  0  0  0  0  0  0  0  0  0  0  0
   -7.3516   -0.4477   -3.0539 H   0  0  0  0  0  0  0  0  0  0  0  0
   -9.0998   -1.4577   -1.6619 H   0  0  0  0  0  0  0  0  0  0  0  0
  1 40  1  0  0  0  0
  2 11  1  0  0  0  0
  2 14  1  0  0  0  0
  3 13  1  0  0  0  0
  3 53  1  0  0  0  0
  4 13  2  0  0  0  0
  5 29  1  0  0  0  0
  5 34  1  0  0  0  0
  6 29  2  0  0  0  0
  7 32  2  0  0  0  0
  7 35  1  0  0  0  0
  8  9  1  0  0  0  0
  8 10  1  0  0  0  0
  8 11  1  0  0  0  0
  8 12  1  0  0  0  0
  9 10  1  0  0  0  0
  9 42  1  0  0  0  0
  9 43  1  0  0  0  0
 10 44  1  0  0  0  0
 10 45  1  0  0  0  0
 11 46  1  0  0  0  0
 11 47  1  0  0  0  0
 12 13  1  0  0  0  0
 12 48  1  0  0  0  0
 12 49  1  0  0  0  0
 14 15  1  0  0  0  0
 14 16  1  0  0  0  0
 14 50  1  0  0  0  0
 15 17  1  0  0  0  0
 15 51  1  0  0  0  0
 15 52  1  0  0  0  0
 16 18  1  0  0  0  0
 16 19  2  0  0  0  0
 17 20  1  0  0  0  0
 17 54  1  0  0  0  0
 17 55  1  0  0  0  0
 18 21  2  0  0  0  0
 18 56  1  0  0  0  0
 19 22  1  0  0  0  0
 19 57  1  0  0  0  0
 20 24  1  0  0  0  0
 20 25  2  0  0  0  0
 21 23  1  0  0  0  0
 21 26  1  0  0  0  0
 22 23  2  0  0  0  0
 22 58  1  0  0  0  0
 23 59  1  0  0  0  0
 24 27  2  0  0  0  0
 24 29  1  0  0  0  0
 25 28  1  0  0  0  0
 25 60  1  0  0  0  0
 26 31  2  0  0  0  0
 26 61  1  0  0  0  0
 27 30  1  0  0  0  0
 27 62  1  0  0  0  0
 28 30  2  0  0  0  0
 28 63  1  0  0  0  0
 30 64  1  0  0  0  0
 31 32  1  0  0  0  0
 31 65  1  0  0  0  0
 32 33  1  0  0  0  0
 33 36  2  0  0  0  0
 33 66  1  0  0  0  0
 34 67  1  0  0  0  0
 34 68  1  0  0  0  0
 34 69  1  0  0  0  0
 35 37  2  0  0  0  0
 35 38  1  0  0  0  0
 36 37  1  0  0  0  0
 36 70  1  0  0  0  0
 37 39  1  0  0  0  0
 38 40  2  0  0  0  0
 38 71  1  0  0  0  0
 39 41  2  0  0  0  0
 39 72  1  0  0  0  0
 40 41  1  0  0  0  0
 41 73  1  0  0  0  0
M  END
> <PUBCHEM_COMPOUND_CID>
11556341

> <PUBCHEM_CONFORMER_RMSD>
1.2

> <PUBCHEM_CONFORMER_DIVERSEORDER>
5
140
165
121
57
109
131
173
127
176
43
164
147
85
178
79
130
172
107
86
145
96
71
75
112
113
148
36
152
90
65
171
135
17
134
179
143
146
52
162
175
60
154
182
122
124
59
69
101
91
138
129
18
103
73
89
46
72
105
174
160
168
38
56
161
28
35
181
144
30
78
66
106
62
100
177
153
108
50
132
110
26
93
128
170
10
61
22
33
97
111
95
141
54
120
166
67
29
142
80
24
151
137
94
39
55
34
155
42
41
99
47
74
158
115
133
159
19
180
77
45
82
48
84
136
15
27
183
169
167
163
32
9
37
119
156
87
114
21
70
83
8
150
125
6
64
68
92
104
7
123
88
49
118
98
157
31
139
16
117
3
81
126
51
102
13
53
58
44
63
116
25
20
149
4
40
1
2
12
14
76
23
11

> <PUBCHEM_MMFF94_PARTIAL_CHARGES>
59
1 -0.18
10 -0.2
11 0.32
12 0.16
13 0.66
14 0.37
16 -0.14
17 0.14
18 -0.15
19 -0.15
2 -0.46
20 -0.14
21 0.03
22 -0.15
23 -0.15
24 0.09
25 -0.15
26 -0.18
27 -0.15
28 -0.15
29 0.63
3 -0.65
30 -0.15
31 -0.18
32 0.34
33 -0.15
34 0.28
35 0.31
36 -0.15
38 -0.15
39 -0.15
4 -0.57
40 0.18
41 -0.15
42 0.1
43 0.1
44 0.1
45 0.1
5 -0.43
53 0.5
56 0.15
57 0.15
58 0.15
59 0.15
6 -0.57
60 0.15
61 0.15
62 0.15
63 0.15
64 0.15
65 0.15
66 0.15
7 -0.62
70 0.15
71 0.15
72 0.15
73 0.15
8 -0.19
9 -0.2

> <PUBCHEM_EFFECTIVE_ROTOR_COUNT>
13.6

> <PUBCHEM_PHARMACOPHORE_FEATURES>
10
1 3 acceptor
1 4 acceptor
1 6 acceptor
1 7 acceptor
3 3 4 13 anion
5 2 11 14 15 17 hydrophobe
6 16 18 19 21 22 23 rings
6 20 24 25 27 28 30 rings
6 35 37 38 39 40 41 rings
6 7 32 33 35 36 37 rings

> <PUBCHEM_HEAVY_ATOM_COUNT>
41

> <PUBCHEM_ATOM_DEF_STEREO_COUNT>
1

> <PUBCHEM_ATOM_UDEF_STEREO_COUNT>
0

> <PUBCHEM_BOND_DEF_STEREO_COUNT>
1

> <PUBCHEM_BOND_UDEF_STEREO_COUNT>
0

> <PUBCHEM_ISOTOPIC_ATOM_COUNT>
0

> <PUBCHEM_COMPONENT_COUNT>
1

> <PUBCHEM_CACTVS_TAUTO_COUNT>
1

> <PUBCHEM_CONFORMER_ID>
00B055F500000005

> <PUBCHEM_MMFF94_ENERGY>
121.4033

> <PUBCHEM_FEATURE_SELFOVERLAP>
50.836

> <PUBCHEM_SHAPE_FINGERPRINT>
10079526 769 17314227753253314378
11828532 37 17313100864929566067
12422481 6 12895064073239385516
131258 43 18342182141949225548
13383661 66 18262509300043582884
14114206 34 17388272143170087024
14537116 161 17894621522989400175
17909252 39 18410569566131640408
19315092 285 17846504703751279864
20587220 46 18129378374895148843
21716022 299 18059584602421089320
4066623 53 17676764280762033526
45266715 3 18268159819781083684
46194498 28 18041268941962450559
5081480 168 17896338964209972304
57527452 28 18202003266052167412
5776283 40 16661209294561648092
70251023 43 18409728418060757952
9831232 110 18260543416752068111

> <PUBCHEM_SHAPE_MULTIPOLES>
821.02
18.53
6.18
3.53
46.03
0.62
-0.89
-21.46
9.5
-11.48
2.14
-2.68
0.58
1.6

> <PUBCHEM_SHAPE_SELFOVERLAP>
1753.324

> <PUBCHEM_SHAPE_VOLUME>
458.5

> <PUBCHEM_COORDINATE_TYPE>
2
5
10

$$$$
